phenol
  PyMOL2.5          3D                             0

 13 13  0  0  0  0  0  0  0  0999 V2000
   25.9780    5.3270    4.7790 C   0  0  0  0  0  0  0  0  0  0  0  0
   26.3950    5.0740    3.4990 C   0  0  0  0  0  0  0  0  0  0  0  0
   27.3400    5.8600    2.9020 C   0  0  0  0  0  0  0  0  0  0  0  0
   27.8370    6.9210    3.5690 C   0  0  0  0  0  0  0  0  0  0  0  0
   27.4200    7.1960    4.8560 C   0  0  0  0  0  0  0  0  0  0  0  0
   26.4980    6.3790    5.4690 C   0  0  0  0  0  0  0  0  0  0  0  0
   25.2298    4.6859    5.2451 H   0  0  0  0  0  0  0  0  0  0  0  0
   25.9676    4.2351    2.9497 H   0  0  0  0  0  0  0  0  0  0  0  0
   27.6890    5.6311    1.8951 H   0  0  0  0  0  0  0  0  0  0  0  0
   28.5730    7.5660    3.0889 H   0  0  0  0  0  0  0  0  0  0  0  0
   28.1311    8.0887    6.4624 H   0  0  0  0  0  0  0  0  0  0  0  0
   26.1874    6.5720    6.4958 H   0  0  0  0  0  0  0  0  0  0  0  0
   27.9460    8.3293    5.5517 O   0  0  0  0  0  0  0  0  0  0  0  0
  1  2  4  0  0  0  0
  1  6  4  0  0  0  0
  1  7  1  0  0  0  0
  2  3  4  0  0  0  0
  2  8  1  0  0  0  0
  3  4  4  0  0  0  0
  3  9  1  0  0  0  0
  4  5  4  0  0  0  0
  4 10  1  0  0  0  0
  5  6  4  0  0  0  0
  5 13  1  0  0  0  0
  6 12  1  0  0  0  0
 11 13  1  0  0  0  0
M  END
$$$$
